@<TRIPOS>MOLECULE
COC
   25    25     1     0     0
SMALL
No Charge or Current Charge


@<TRIPOS>ATOM
      1 C1          1.8490    0.0140   -0.8310 c3        1 COC      0.005800
      2 H2          1.1080    0.0070   -1.6250 hc        1 COC     -0.001600
      3 H3          2.8110    0.0230   -1.3370 hc        1 COC     -0.001600
      4 C2          1.7590   -1.2960   -0.0430 c3        1 COC      0.032600
      5 H4          1.9450   -2.1040   -0.7480 hc        1 COC     -0.008000
      6 H5          2.5730   -1.3380    0.6790 hc        1 COC     -0.008000
      7 C3          0.4410   -1.6010    0.6890 c3        1 COC     -0.037000
      8 H6          0.4070   -1.0760    1.6380 hc        1 COC      0.006700
      9 H7          0.4630   -2.6550    0.9520 hc        1 COC      0.006700
     10 C4         -0.8500   -1.3240   -0.1050 c3        1 COC     -0.054000
     11 H8         -0.6680   -1.3620   -1.1750 hc        1 COC      0.039000
     12 H9         -1.5690   -2.1090    0.1000 hc        1 COC      0.039000
     13 C5         -1.5750   -0.0190    0.2290 c3        1 COC      0.242000
     14 H10        -1.7790   -0.0220    1.3010 h1        1 COC      0.007900
     15 C6         -0.8710    1.3010   -0.1080 c3        1 COC     -0.054000
     16 H11        -0.6900    1.3420   -1.1780 hc        1 COC      0.039000
     17 H12        -1.5940    2.0890    0.0970 hc        1 COC      0.039000
     18 C7          0.4130    1.6070    0.6870 c3        1 COC     -0.037000
     19 H13         0.3870    1.0800    1.6350 hc        1 COC      0.006700
     20 H14         0.4170    2.6610    0.9500 hc        1 COC      0.006700
     21 C8          1.7370    1.3230   -0.0440 c3        1 COC      0.032600
     22 H15         2.5490    1.3790    0.6790 hc        1 COC     -0.008000
     23 H16         1.9090    2.1340   -0.7490 hc        1 COC     -0.008000
     24 O1         -2.7960   -0.0920   -0.4750 oh        1 COC     -0.718900
     25 H1         -3.3270    0.6640   -0.2690 ho        1 COC      0.432400
@<TRIPOS>BOND
     1    1    2 1   
     2    1    3 1   
     3    1    4 1   
     4    1   21 1   
     5    4    5 1   
     6    4    6 1   
     7    4    7 1   
     8    7    8 1   
     9    7    9 1   
    10    7   10 1   
    11   10   11 1   
    12   10   12 1   
    13   10   13 1   
    14   13   14 1   
    15   13   15 1   
    16   13   24 1   
    17   15   16 1   
    18   15   17 1   
    19   15   18 1   
    20   18   19 1   
    21   18   20 1   
    22   18   21 1   
    23   21   22 1   
    24   21   23 1   
    25   24   25 1   
@<TRIPOS>SUBSTRUCTURE
     1 COC         1 TEMP              0 ****  ****    0 ROOT
