@<TRIPOS>MOLECULE
ASP
   10     9     1     0     0
SMALL
No Charge or Current Charge


@<TRIPOS>ATOM
      1 N1          1.2200   -0.5860    0.2180 N         1 ASP     -0.675600
      2 H2          0.4860   -1.2760    0.2230 H         1 ASP      0.336000
      3 C2          0.7710    0.6760    0.0760 C         1 ASP      0.728600
      4 C3         -0.7020    0.8840    0.3780 CT        1 ASP     -0.213300
      5 H31        -0.7790    0.9860    1.4610 HC        1 ASP      0.030900
      6 HC31       -0.9940    1.8320   -0.0510 HC        1 ASP      0.030900
      7 C4         -1.7310   -0.2200   -0.0280 C         1 ASP      0.812700
      8 O2         -1.3460   -1.3980    0.0620 O2        1 ASP     -0.785600
      9 O1         -2.8340    0.2060   -0.3410 O2        1 ASP     -0.785600
     10 O3          1.5030    1.5960   -0.2220 O         1 ASP     -0.677000
@<TRIPOS>BOND
     1    1    2 1   
     2    1    3 2   
     3    3    4 1   
     4    3   10 1   
     5    4    5 1   
     6    4    6 1   
     7    4    7 1   
     8    7    8 1   
     9    7    9 1   
@<TRIPOS>SUBSTRUCTURE
     1 ASP         1 TEMP              0 ****  ****    0 ROOT
