@<TRIPOS>MOLECULE
MGB
   19    19     1     0     1 
SMALL
USER_CHARGES
@<TRIPOS>ATOM
  1 C1          1.136334   -0.817888   -0.568646 C         1 MGB        0.0427 ****
  2 H1          1.629646   -1.347578   -1.380785 H         1 MGB        0.1610 ****
  3 O1          1.693018   -1.178781    0.641556 O         1 MGB       -0.3229 ****
  4 C2          1.286276    0.692637   -0.753039 C         1 MGB        0.1376 ****
  5 H2          0.893319    0.924482   -1.744331 H         1 MGB        0.0650 ****
  6 O2          2.610511    1.107081   -0.635813 O         1 MGB       -0.6346 ****
  7 HO2         3.115634    0.802626   -1.371102 H         1 MGB        0.4366 ****
  8 C3          0.447227    1.434454    0.283048 C         1 MGB        0.1224 ****
  9 H3          0.879881    1.235601    1.257571 H         1 MGB        0.1779 ****
 10 C4         -0.994062    0.923606    0.244390 C         1 MGB        0.0401 ****
 11 H4         -1.459363    1.220070   -0.688545 H         1 MGB        0.1595 ****
 12 C5         -1.054269   -0.606260    0.305489 C         1 MGB        0.0193 ****
 13 H5         -0.746412   -0.930062    1.299455 H         1 MGB        0.1156 ****
 14 O5         -0.202827   -1.180127   -0.659419 O         1 MGB       -0.3668 ****
 15 C6         -2.449769   -1.145415    0.061046 C         1 MGB        0.1918 ****
 16 H61        -3.093619   -0.804000    0.866610 H         1 MGB        0.0254 ****
 17 H62        -2.404699   -2.232005    0.089442 H         1 MGB        0.0254 ****
 18 O6         -2.912805   -0.695834   -1.180804 O         1 MGB       -0.6077 ****
 19 HO6        -3.815009   -0.942299   -1.293514 H         1 MGB        0.4097 ****
@<TRIPOS>BOND
    1    18    19 1
    2    15    16 1
    3    15    17 1
    4    15    18 1
    5    12    13 1
    6    12    14 1
    7    12    15 1
    8    10    11 1
    9    10    12 1
   10     8     9 1
   11     8    10 1
   12     6     7 1
   13     4     5 1
   14     4     6 1
   15     4     8 1
   16     1     2 1
   17     1     3 1
   18     1     4 1
   19     1    14 1
@<TRIPOS>SUBSTRUCTURE
      1  MGB              1 ****               0 ****  **** 
