@<TRIPOS>MOLECULE
OAc
    7     6     1     0     1 
SMALL
USER_CHARGES
@<TRIPOS>ATOM
  1 OS         -0.546964   -0.695306   -0.000002 O         1 OAc       -0.3896 ****
  2 C           0.453509    0.175601   -0.000001 C         1 OAc        0.8849 ****
  3 O           0.294643    1.353062    0.000000 O         1 OAc       -0.6087 ****
  4 CM          1.786906   -0.518656    0.000000 C         1 OAc       -0.4521 ****
  5 HM1         1.867409   -1.153390   -0.874969 H         1 OAc        0.1225 ****
  6 HM2         2.577341    0.216914   -0.000018 H         1 OAc        0.1225 ****
  7 HM3         1.867423   -1.153357    0.874993 H         1 OAc        0.1225 ****
@<TRIPOS>BOND
    1     1     2 1
    2     2     3 1
    3     2     4 1
    4     4     5 1
    5     4     6 1
    6     4     7 1
@<TRIPOS>SUBSTRUCTURE
      1  OAc              1 ****               0 ****  **** 
