@<TRIPOS>MOLECULE
OMe
    5     4     1     0     1 
SMALL
USER_CHARGES
@<TRIPOS>ATOM
  1 OS         -0.000011   -0.570627    0.000000 O         1 OMe       -0.3813 ****
  2 CM          1.166176    0.188570    0.000000 C         1 OMe        0.0123 ****
  3 HM1         1.230810    0.823246   -0.883390 H         1 OMe        0.0570 ****
  4 HM2         2.004450   -0.495460    0.000022 H         1 OMe        0.0570 ****
  5 HM3         1.230791    0.823278    0.883369 H         1 OMe        0.0570 ****
@<TRIPOS>BOND
    1     1     2 1
    2     2     3 1
    3     2     4 1
    4     2     5 1
@<TRIPOS>SUBSTRUCTURE
      1  OMe              1 ****               0 ****  **** 
