@<TRIPOS>MOLECULE
OBn
   15    15     1     0     1 
SMALL
USER_CHARGES
@<TRIPOS>ATOM
  1 OS         -2.184356    0.421976   -0.108366 O         1 OBn       -0.3527 ****
  2 CM         -1.364822   -0.683424    0.103455 C         1 OBn        0.1086 ****
  3 HM1        -1.568124   -1.451398   -0.643776 H         1 OBn        0.0382 ****
  4 HM2        -1.579314   -1.124511    1.078724 H         1 OBn        0.0382 ****
  5 C1          0.093002   -0.288060    0.038803 C         1 OBn        0.0662 ****
  6 C2          0.493032    1.039274    0.053176 C         1 OBn       -0.1410 ****
  7 H2         -0.249060    1.813380    0.086799 H         1 OBn        0.1140 ****
  8 C3          1.841606    1.363263    0.017153 C         1 OBn       -0.1639 ****
  9 H3          2.139056    2.397429    0.025972 H         1 OBn        0.1469 ****
 10 C4          2.801700    0.368610   -0.030441 C         1 OBn       -0.1467 ****
 11 H4          3.846517    0.623368   -0.058729 H         1 OBn        0.1382 ****
 12 C5          2.406879   -0.960553   -0.044720 C         1 OBn       -0.1639 ****
 13 H5          3.144597   -1.742817   -0.085177 H         1 OBn        0.1469 ****
 14 C6          1.062716   -1.283587   -0.012447 C         1 OBn       -0.1410 ****
 15 H6          0.765304   -2.319425   -0.029610 H         1 OBn        0.1140 ****
@<TRIPOS>BOND
    1     1     2 1
    2     2     3 1
    3     2     4 1
    4     2     5 1
    5     5     6 1
    6     5    14 1
    7     6     7 1
    8     6     8 1
    9     8     9 1
   10     8    10 1
   11    10    11 1
   12    10    12 1
   13    12    13 1
   14    12    14 1
   15    14    15 1
@<TRIPOS>SUBSTRUCTURE
      1  OBn              1 ****               0 ****  **** 
