@<TRIPOS>MOLECULE
OBz
   14    14     1     0     1 
SMALL
USER_CHARGES
@<TRIPOS>ATOM
  1 OS         -1.964676   -0.713969    0.000000 O         1 OBz       -0.3457 ****
  2 C          -1.233492    0.390187    0.000000 C         1 OBz        0.7379 ****
  3 O          -1.709192    1.482339    0.000000 O         1 OBz       -0.5479 ****
  4 C1          0.232373    0.120564    0.000000 C         1 OBz       -0.1094 ****
  5 C2          1.095370    1.210135    0.000000 C         1 OBz       -0.0927 ****
  6 H2          0.681925    2.200949    0.000000 H         1 OBz        0.1153 ****
  7 C3          2.463449    1.010110    0.000000 C         1 OBz       -0.1218 ****
  8 H3          3.129930    1.853899    0.000000 H         1 OBz        0.1282 ****
  9 C4          2.972673   -0.279553    0.000000 C         1 OBz       -0.1251 ****
 10 H4          4.037203   -0.435724    0.000000 H         1 OBz        0.1342 ****
 11 C5          2.115565   -1.368370    0.000000 C         1 OBz       -0.1218 ****
 12 H5          2.512756   -2.367641    0.000000 H         1 OBz        0.1282 ****
 13 C6          0.745635   -1.170861    0.000000 C         1 OBz       -0.0927 ****
 14 H6          0.077442   -2.010376    0.000000 H         1 OBz        0.1153 ****
@<TRIPOS>BOND
    1     1     2 1
    2     2     3 1
    3     2     4 1
    4     4     5 1
    5     4    13 1
    6     5     6 1
    7     5     7 1
    8     7     8 1
    9     7     9 1
   10     9    10 1
   11     9    11 1
   12    11    12 1
   13    11    13 1
   14    13    14 1
@<TRIPOS>SUBSTRUCTURE
      1  OBz              1 ****               0 ****  **** 
