@<TRIPOS>MOLECULE
SCC
   12    11     1     0     1 
SMALL
USER_CHARGES
@<TRIPOS>ATOM
  1 N1          2.987211    0.617845   -0.179016 N         1 SCC       -0.5424 ****
  2 H1          2.831764    1.594953   -0.257116 H         1 SCC        0.3118 ****
  3 C1          1.925791   -0.192676    0.030327 C         1 SCC        0.5391 ****
  4 O1          2.047315   -1.369149    0.247703 O         1 SCC       -0.5628 ****
  5 C2          0.575148    0.497318   -0.029800 C         1 SCC        0.0540 ****
  6 H21         0.530205    1.132428   -0.908742 H         1 SCC       -0.0070 ****
  7 H22         0.485956    1.161628    0.823695 H         1 SCC       -0.0070 ****
  8 C3         -0.575148   -0.497320   -0.029781 C         1 SCC        0.0540 ****
  9 H31        -0.530210   -1.132458   -0.908704 H         1 SCC       -0.0070 ****
 10 H32        -0.485952   -1.161604    0.823734 H         1 SCC       -0.0070 ****
 11 C4         -1.925791    0.192675    0.030335 C         1 SCC        0.5391 ****
 12 O4         -2.047315    1.369149    0.247711 O         1 SCC       -0.5628 ****
@<TRIPOS>BOND
    1     1     2 1
    2     1     3 1
    3     3     4 1
    4     3     5 1
    5     5     6 1
    6     5     7 1
    7     5     8 1
    8     8     9 1
    9     8    10 1
   10     8    11 1
   11    11    12 1
@<TRIPOS>SUBSTRUCTURE
      1  SCC              1 ****               0 ****  **** 
